         448
input.xyz
C       7.79130     4.32012    12.64200
C       3.85630     1.73012     0.00000
C       7.82278     4.68790    11.21010
C       3.88778     2.09790     1.43190
C       0.65321     0.63196    10.79730
C       4.58821     3.22196     1.84470
C       0.68469     0.97902     9.45570
C       4.61969     3.56902     3.18630
C       0.01574     0.20202     8.52690
C       3.95074     2.79202     4.11510
C       7.18531     4.25796     8.93970
C       3.25031     1.66796     3.70230
C       7.15383     3.91090    10.28130
C       3.21883     1.32090     2.36070
C       0.00000     0.00000     2.03820
C       3.93500     2.59000    10.60380
C       0.64534     4.10774     2.63160
C       4.58034     1.51774    10.01040
C       0.62960     3.96270     4.01190
C       4.56460     1.37270     8.63010
C       7.83852     4.88992     4.79880
C       3.90352     2.29992     7.84320
C       7.19318     0.78218     4.20540
C       3.25818     3.37218     8.43660
C       7.20892     0.92722     2.82510
C       3.27392     3.51722     9.81690
C       0.04722     0.56980     7.09500
C       3.98222     3.15980     5.54700
H       0.08657     1.05672     0.21930
H       4.02157     3.64672    12.42270
H       7.75195     3.83320     6.61770
H       3.81695     1.24320     6.02430
H       1.14902     1.20176    11.48100
H       5.08402     3.79176     1.16100
H       6.64228     3.08728    10.57800
H       2.70728     0.49728     2.06400
H       1.12541     3.42398     2.05110
H       5.06041     0.83398    10.59090
H       1.10967     3.17534     4.43760
H       5.04467     0.58534     8.20440
H       6.71311     1.46594     4.78590
H       2.77811     4.05594     7.85610
H       6.72885     1.71458     2.39940
H       2.79385     4.30458    10.24260
H       1.24346     1.54882     8.93970
H       5.17846     4.13882     3.70230
H       6.60293     3.68816     8.42370
H       2.66793     1.09816     4.21830
N       0.00787     0.14504     0.61920
N       3.94287     2.73504    12.02280
N       7.83065     4.74488     6.21780
N       3.89565     2.15488     6.42420
O       7.68899     3.13390     0.06450
O       3.75399     0.54390    12.57750
O       0.14953     1.75602     6.77250
O       4.08453     4.34602     5.86950
C       7.79130     9.50012    12.64200
C       3.85630     6.91012     0.00000
C       7.82278     9.86790    11.21010
C       3.88778     7.27790     1.43190
C       0.65321     5.81196    10.79730
C       4.58821     8.40196     1.84470
C       0.68469     6.15902     9.45570
C       4.61969     8.74902     3.18630
C       0.01574     5.38202     8.52690
C       3.95074     7.97202     4.11510
C       7.18531     9.43796     8.93970
C       3.25031     6.84796     3.70230
C       7.15383     9.09090    10.28130
C       3.21883     6.50090     2.36070
C       0.00000     5.18000     2.03820
C       3.93500     7.77000    10.60380
C       0.64534     9.28774     2.63160
C       4.58034     6.69774    10.01040
C       0.62960     9.14270     4.01190
C       4.56460     6.55270     8.63010
C       7.83852    10.06992     4.79880
C       3.90352     7.47992     7.84320
C       7.19318     5.96218     4.20540
C       3.25818     8.55218     8.43660
C       7.20892     6.10722     2.82510
C       3.27392     8.69722     9.81690
C       0.04722     5.74980     7.09500
C       3.98222     8.33980     5.54700
H       0.08657     6.23672     0.21930
H       4.02157     8.82672    12.42270
H       7.75195     9.01320     6.61770
H       3.81695     6.42320     6.02430
H       1.14902     6.38176    11.48100
H       5.08402     8.97176     1.16100
H       6.64228     8.26728    10.57800
H       2.70728     5.67728     2.06400
H       1.12541     8.60398     2.05110
H       5.06041     6.01398    10.59090
H       1.10967     8.35534     4.43760
H       5.04467     5.76534     8.20440
H       6.71311     6.64594     4.78590
H       2.77811     9.23594     7.85610
H       6.72885     6.89458     2.39940
H       2.79385     9.48458    10.24260
H       1.24346     6.72882     8.93970
H       5.17846     9.31882     3.70230
H       6.60293     8.86816     8.42370
H       2.66793     6.27816     4.21830
N       0.00787     5.32504     0.61920
N       3.94287     7.91504    12.02280
N       7.83065     9.92488     6.21780
N       3.89565     7.33488     6.42420
O       7.68899     8.31390     0.06450
O       3.75399     5.72390    12.57750
O       0.14953     6.93602     6.77250
O       4.08453     9.52602     5.86950
C      15.66130     4.32012    12.64200
C      11.72630     1.73012     0.00000
C      15.69278     4.68790    11.21010
C      11.75778     2.09790     1.43190
C       8.52321     0.63196    10.79730
C      12.45821     3.22196     1.84470
C       8.55469     0.97902     9.45570
C      12.48969     3.56902     3.18630
C       7.88574     0.20202     8.52690
C      11.82074     2.79202     4.11510
C      15.05531     4.25796     8.93970
C      11.12031     1.66796     3.70230
C      15.02383     3.91090    10.28130
C      11.08883     1.32090     2.36070
C       7.87000     0.00000     2.03820
C      11.80500     2.59000    10.60380
C       8.51534     4.10774     2.63160
C      12.45034     1.51774    10.01040
C       8.49960     3.96270     4.01190
C      12.43460     1.37270     8.63010
C      15.70852     4.88992     4.79880
C      11.77352     2.29992     7.84320
C      15.06318     0.78218     4.20540
C      11.12818     3.37218     8.43660
C      15.07892     0.92722     2.82510
C      11.14392     3.51722     9.81690
C       7.91722     0.56980     7.09500
C      11.85222     3.15980     5.54700
H       7.95657     1.05672     0.21930
H      11.89157     3.64672    12.42270
H      15.62195     3.83320     6.61770
H      11.68695     1.24320     6.02430
H       9.01902     1.20176    11.48100
H      12.95402     3.79176     1.16100
H      14.51228     3.08728    10.57800
H      10.57728     0.49728     2.06400
H       8.99541     3.42398     2.05110
H      12.93041     0.83398    10.59090
H       8.97967     3.17534     4.43760
H      12.91467     0.58534     8.20440
H      14.58311     1.46594     4.78590
H      10.64811     4.05594     7.85610
H      14.59885     1.71458     2.39940
H      10.66385     4.30458    10.24260
H       9.11346     1.54882     8.93970
H      13.04846     4.13882     3.70230
H      14.47293     3.68816     8.42370
H      10.53793     1.09816     4.21830
N       7.87787     0.14504     0.61920
N      11.81287     2.73504    12.02280
N      15.70065     4.74488     6.21780
N      11.76565     2.15488     6.42420
O      15.55899     3.13390     0.06450
O      11.62399     0.54390    12.57750
O       8.01953     1.75602     6.77250
O      11.95453     4.34602     5.86950
C      15.66130     9.50012    12.64200
C      11.72630     6.91012     0.00000
C      15.69278     9.86790    11.21010
C      11.75778     7.27790     1.43190
C       8.52321     5.81196    10.79730
C      12.45821     8.40196     1.84470
C       8.55469     6.15902     9.45570
C      12.48969     8.74902     3.18630
C       7.88574     5.38202     8.52690
C      11.82074     7.97202     4.11510
C      15.05531     9.43796     8.93970
C      11.12031     6.84796     3.70230
C      15.02383     9.09090    10.28130
C      11.08883     6.50090     2.36070
C       7.87000     5.18000     2.03820
C      11.80500     7.77000    10.60380
C       8.51534     9.28774     2.63160
C      12.45034     6.69774    10.01040
C       8.49960     9.14270     4.01190
C      12.43460     6.55270     8.63010
C      15.70852    10.06992     4.79880
C      11.77352     7.47992     7.84320
C      15.06318     5.96218     4.20540
C      11.12818     8.55218     8.43660
C      15.07892     6.10722     2.82510
C      11.14392     8.69722     9.81690
C       7.91722     5.74980     7.09500
C      11.85222     8.33980     5.54700
H       7.95657     6.23672     0.21930
H      11.89157     8.82672    12.42270
H      15.62195     9.01320     6.61770
H      11.68695     6.42320     6.02430
H       9.01902     6.38176    11.48100
H      12.95402     8.97176     1.16100
H      14.51228     8.26728    10.57800
H      10.57728     5.67728     2.06400
H       8.99541     8.60398     2.05110
H      12.93041     6.01398    10.59090
H       8.97967     8.35534     4.43760
H      12.91467     5.76534     8.20440
H      14.58311     6.64594     4.78590
H      10.64811     9.23594     7.85610
H      14.59885     6.89458     2.39940
H      10.66385     9.48458    10.24260
H       9.11346     6.72882     8.93970
H      13.04846     9.31882     3.70230
H      14.47293     8.86816     8.42370
H      10.53793     6.27816     4.21830
N       7.87787     5.32504     0.61920
N      11.81287     7.91504    12.02280
N      15.70065     9.92488     6.21780
N      11.76565     7.33488     6.42420
O      15.55899     8.31390     0.06450
O      11.62399     5.72390    12.57750
O       8.01953     6.93602     6.77250
O      11.95453     9.52602     5.86950
C       7.79130    14.68012    12.64200
C       3.85630    12.09012     0.00000
C       7.82278    15.04790    11.21010
C       3.88778    12.45790     1.43190
C       0.65321    10.99196    10.79730
C       4.58821    13.58196     1.84470
C       0.68469    11.33902     9.45570
C       4.61969    13.92902     3.18630
C       0.01574    10.56202     8.52690
C       3.95074    13.15202     4.11510
C       7.18531    14.61796     8.93970
C       3.25031    12.02796     3.70230
C       7.15383    14.27090    10.28130
C       3.21883    11.68090     2.36070
C       0.00000    10.36000     2.03820
C       3.93500    12.95000    10.60380
C       0.64534    14.46774     2.63160
C       4.58034    11.87774    10.01040
C       0.62960    14.32270     4.01190
C       4.56460    11.73270     8.63010
C       7.83852    15.24992     4.79880
C       3.90352    12.65992     7.84320
C       7.19318    11.14218     4.20540
C       3.25818    13.73218     8.43660
C       7.20892    11.28722     2.82510
C       3.27392    13.87722     9.81690
C       0.04722    10.92980     7.09500
C       3.98222    13.51980     5.54700
H       0.08657    11.41672     0.21930
H       4.02157    14.00672    12.42270
H       7.75195    14.19320     6.61770
H       3.81695    11.60320     6.02430
H       1.14902    11.56176    11.48100
H       5.08402    14.15176     1.16100
H       6.64228    13.44728    10.57800
H       2.70728    10.85728     2.06400
H       1.12541    13.78398     2.05110
H       5.06041    11.19398    10.59090
H       1.10967    13.53534     4.43760
H       5.04467    10.94534     8.20440
H       6.71311    11.82594     4.78590
H       2.77811    14.41594     7.85610
H       6.72885    12.07458     2.39940
H       2.79385    14.66458    10.24260
H       1.24346    11.90882     8.93970
H       5.17846    14.49882     3.70230
H       6.60293    14.04816     8.42370
H       2.66793    11.45816     4.21830
N       0.00787    10.50504     0.61920
N       3.94287    13.09504    12.02280
N       7.83065    15.10488     6.21780
N       3.89565    12.51488     6.42420
O       7.68899    13.49390     0.06450
O       3.75399    10.90390    12.57750
O       0.14953    12.11602     6.77250
O       4.08453    14.70602     5.86950
C       7.79130    19.86012    12.64200
C       3.85630    17.27012     0.00000
C       7.82278    20.22790    11.21010
C       3.88778    17.63790     1.43190
C       0.65321    16.17196    10.79730
C       4.58821    18.76196     1.84470
C       0.68469    16.51902     9.45570
C       4.61969    19.10902     3.18630
C       0.01574    15.74202     8.52690
C       3.95074    18.33202     4.11510
C       7.18531    19.79796     8.93970
C       3.25031    17.20796     3.70230
C       7.15383    19.45090    10.28130
C       3.21883    16.86090     2.36070
C       0.00000    15.54000     2.03820
C       3.93500    18.13000    10.60380
C       0.64534    19.64774     2.63160
C       4.58034    17.05774    10.01040
C       0.62960    19.50270     4.01190
C       4.56460    16.91270     8.63010
C       7.83852    20.42992     4.79880
C       3.90352    17.83992     7.84320
C       7.19318    16.32218     4.20540
C       3.25818    18.91218     8.43660
C       7.20892    16.46722     2.82510
C       3.27392    19.05722     9.81690
C       0.04722    16.10980     7.09500
C       3.98222    18.69980     5.54700
H       0.08657    16.59672     0.21930
H       4.02157    19.18672    12.42270
H       7.75195    19.37320     6.61770
H       3.81695    16.78320     6.02430
H       1.14902    16.74176    11.48100
H       5.08402    19.33176     1.16100
H       6.64228    18.62728    10.57800
H       2.70728    16.03728     2.06400
H       1.12541    18.96398     2.05110
H       5.06041    16.37398    10.59090
H       1.10967    18.71534     4.43760
H       5.04467    16.12534     8.20440
H       6.71311    17.00594     4.78590
H       2.77811    19.59594     7.85610
H       6.72885    17.25458     2.39940
H       2.79385    19.84458    10.24260
H       1.24346    17.08882     8.93970
H       5.17846    19.67882     3.70230
H       6.60293    19.22816     8.42370
H       2.66793    16.63816     4.21830
N       0.00787    15.68504     0.61920
N       3.94287    18.27504    12.02280
N       7.83065    20.28488     6.21780
N       3.89565    17.69488     6.42420
O       7.68899    18.67390     0.06450
O       3.75399    16.08390    12.57750
O       0.14953    17.29602     6.77250
O       4.08453    19.88602     5.86950
C      15.66130    14.68012    12.64200
C      11.72630    12.09012     0.00000
C      15.69278    15.04790    11.21010
C      11.75778    12.45790     1.43190
C       8.52321    10.99196    10.79730
C      12.45821    13.58196     1.84470
C       8.55469    11.33902     9.45570
C      12.48969    13.92902     3.18630
C       7.88574    10.56202     8.52690
C      11.82074    13.15202     4.11510
C      15.05531    14.61796     8.93970
C      11.12031    12.02796     3.70230
C      15.02383    14.27090    10.28130
C      11.08883    11.68090     2.36070
C       7.87000    10.36000     2.03820
C      11.80500    12.95000    10.60380
C       8.51534    14.46774     2.63160
C      12.45034    11.87774    10.01040
C       8.49960    14.32270     4.01190
C      12.43460    11.73270     8.63010
C      15.70852    15.24992     4.79880
C      11.77352    12.65992     7.84320
C      15.06318    11.14218     4.20540
C      11.12818    13.73218     8.43660
C      15.07892    11.28722     2.82510
C      11.14392    13.87722     9.81690
C       7.91722    10.92980     7.09500
C      11.85222    13.51980     5.54700
H       7.95657    11.41672     0.21930
H      11.89157    14.00672    12.42270
H      15.62195    14.19320     6.61770
H      11.68695    11.60320     6.02430
H       9.01902    11.56176    11.48100
H      12.95402    14.15176     1.16100
H      14.51228    13.44728    10.57800
H      10.57728    10.85728     2.06400
H       8.99541    13.78398     2.05110
H      12.93041    11.19398    10.59090
H       8.97967    13.53534     4.43760
H      12.91467    10.94534     8.20440
H      14.58311    11.82594     4.78590
H      10.64811    14.41594     7.85610
H      14.59885    12.07458     2.39940
H      10.66385    14.66458    10.24260
H       9.11346    11.90882     8.93970
H      13.04846    14.49882     3.70230
H      14.47293    14.04816     8.42370
H      10.53793    11.45816     4.21830
N       7.87787    10.50504     0.61920
N      11.81287    13.09504    12.02280
N      15.70065    15.10488     6.21780
N      11.76565    12.51488     6.42420
O      15.55899    13.49390     0.06450
O      11.62399    10.90390    12.57750
O       8.01953    12.11602     6.77250
O      11.95453    14.70602     5.86950
C      15.66130    19.86012    12.64200
C      11.72630    17.27012     0.00000
C      15.69278    20.22790    11.21010
C      11.75778    17.63790     1.43190
C       8.52321    16.17196    10.79730
C      12.45821    18.76196     1.84470
C       8.55469    16.51902     9.45570
C      12.48969    19.10902     3.18630
C       7.88574    15.74202     8.52690
C      11.82074    18.33202     4.11510
C      15.05531    19.79796     8.93970
C      11.12031    17.20796     3.70230
C      15.02383    19.45090    10.28130
C      11.08883    16.86090     2.36070
C       7.87000    15.54000     2.03820
C      11.80500    18.13000    10.60380
C       8.51534    19.64774     2.63160
C      12.45034    17.05774    10.01040
C       8.49960    19.50270     4.01190
C      12.43460    16.91270     8.63010
C      15.70852    20.42992     4.79880
C      11.77352    17.83992     7.84320
C      15.06318    16.32218     4.20540
C      11.12818    18.91218     8.43660
C      15.07892    16.46722     2.82510
C      11.14392    19.05722     9.81690
C       7.91722    16.10980     7.09500
C      11.85222    18.69980     5.54700
H       7.95657    16.59672     0.21930
H      11.89157    19.18672    12.42270
H      15.62195    19.37320     6.61770
H      11.68695    16.78320     6.02430
H       9.01902    16.74176    11.48100
H      12.95402    19.33176     1.16100
H      14.51228    18.62728    10.57800
H      10.57728    16.03728     2.06400
H       8.99541    18.96398     2.05110
H      12.93041    16.37398    10.59090
H       8.97967    18.71534     4.43760
H      12.91467    16.12534     8.20440
H      14.58311    17.00594     4.78590
H      10.64811    19.59594     7.85610
H      14.59885    17.25458     2.39940
H      10.66385    19.84458    10.24260
H       9.11346    17.08882     8.93970
H      13.04846    19.67882     3.70230
H      14.47293    19.22816     8.42370
H      10.53793    16.63816     4.21830
N       7.87787    15.68504     0.61920
N      11.81287    18.27504    12.02280
N      15.70065    20.28488     6.21780
N      11.76565    17.69488     6.42420
O      15.55899    18.67390     0.06450
O      11.62399    16.08390    12.57750
O       8.01953    17.29602     6.77250
O      11.95453    19.88602     5.86950
